/*--------------------------------*- C++ -*----------------------------------*\
  =========                 |
  \\      /  F ield         | OpenFOAM: The Open Source CFD Toolbox
   \\    /   O peration     | Website:  https://openfoam.org
    \\  /    A nd           | Version:  8
     \\/     M anipulation  |
\*---------------------------------------------------------------------------*/
FoamFile
{
    version     2.0;
    format      ascii;
    class       volVectorField;
    location    "0";
    object      U;
}
// * * * * * * * * * * * * * * * * * * * * * * * * * * * * * * * * * * * * * //

dimensions      [0 1 -1 0 0 0 0];

internalField   uniform (0 0 0);

boundaryField
{
    roof
    {
        type            noSlip;
    }
    middleplane
    {
        type            symmetryPlane;
    }
    inlet
    {
        type            codedFixedValue;
        value           uniform (0 0 0); // initialize
        name            dummy;
        
        // see https://cfd-training.com/2018/05/07/non-uniform-inlet-profil-with-codedfixedvalue
        code
        #{
             const vectorField& Cf = patch().Cf(); 

             const scalar H	= 0.0052; 
             const scalar Umax  = 2.4; // case of Re = 1059 in the paper

             forAll(Cf, faceI) // loop over all the patch faces
             {
                const scalar y = Cf[faceI].y() - 0.0049; 
                // see https://farside.ph.utexas.edu/teaching/336L/Fluidhtml/node134.html
                (*this)[faceI] = vector(Umax * 4 * y / H * (1 - y / H), 0, 0);
             }
        #};
    }
    endwall
    {
        type            noSlip;
    }
    floor
    {
        type            noSlip;
    }
    outlet
    {
        type            zeroGradient;
    }
}


// ************************************************************************* //
